[TITLE]
HydroSim base image

[JUNCTIONS]
;ID              	Elev        	Demand      	Pattern         
 01              	0           	0           	                	;
 02              	-1          	0           	                	;
 03              	0           	0           	                	;
 04              	0           	0           	                	;
 05              	-1          	0           	                	;
 06              	-1          	0           	                	;
 07              	-1          	0           	                	;
 08              	-1          	0           	                	;
 09              	-1          	0           	                	;
 13              	0           	0           	                	;
 14              	0           	0           	                	;
 15              	0           	0           	                	;
 16              	0           	0           	                	;
 17              	0           	0           	                	;
 18              	0           	0           	                	;
 19              	0           	0           	                	;
 20              	0           	0           	                	;
 21              	-1          	0           	                	;
 22              	-1          	0           	                	;
 23              	-1          	0           	                	;
 24              	-1          	0           	                	;
 25              	-1          	0           	                	;
 26              	-1          	0           	                	;
 27              	-1          	0           	                	;
 28              	-1          	0           	                	;
 29              	-1          	0           	                	;
 30              	-1          	0           	                	;
 31              	-1          	0           	                	;
 32              	-1          	0           	                	;
 33              	-1          	0           	                	;
 34              	0           	0           	                	;
 z0-junction1    	0           	0           	                	;
 z1-house01      	0           	.5          	1               	;
 z1-house02      	0           	.5          	1               	;
 z1-house03      	0           	.5          	1               	;
 z1-house04      	0           	.5          	1               	;
 z1-house05      	0           	.5          	1               	;
 z1-house06      	0           	.5          	1               	;
 z1-house07      	0           	.5          	1               	;
 z1-house08      	0           	.5          	1               	;
 z1-house09      	0           	.5          	1               	;
 z1-house10      	0           	.5          	1               	;
 z1-house11      	0           	.5          	1               	;
 z1-house12      	0           	.5          	1               	;
 z1-house13      	0           	.5          	1               	;
 z1-house14      	0           	.5          	1               	;
 z1-house15      	0           	.5          	1               	;
 z1-house16      	0           	.5          	1               	;
 z1-house17      	0           	.5          	1               	;
 z1-house18      	0           	.5          	1               	;
 z1-house19      	0           	.5          	1               	;
 z1-house20      	0           	.5          	1               	;
 z1-house21      	0           	.5          	1               	;
 z1-house22      	0           	.5          	1               	;
 z1-house23      	0           	.5          	1               	;
 z1-house24      	0           	.5          	1               	;
 z1-junction1    	-1          	0           	                	;
 z1-junction2    	-1          	0           	                	;
 z1-junction3    	-1          	0           	                	;
 z1-junction4    	-1          	0           	                	;
 z1-junction5    	-1          	0           	                	;
 z2-house01      	0           	.5          	1               	;
 z2-house02      	0           	.5          	1               	;
 z2-house03      	0           	.5          	1               	;
 z2-house04      	0           	.5          	1               	;
 z2-house05      	0           	.5          	1               	;
 z2-house06      	0           	.5          	1               	;
 z2-house07      	0           	.5          	1               	;
 z2-house08      	0           	.5          	1               	;
 z2-house09      	0           	.5          	1               	;
 z2-house10      	0           	.5          	1               	;
 z2-house11      	0           	.5          	1               	;
 z2-house12      	0           	.5          	1               	;
 z2-house13      	0           	.5          	1               	;
 z2-house14      	0           	.5          	1               	;
 z2-house15      	0           	.5          	1               	;
 z2-house16      	0           	.5          	1               	;
 z2-house17      	0           	.5          	1               	;
 z2-house18      	0           	.5          	1               	;
 z2-house19      	0           	.5          	1               	;
 z2-house20      	0           	.5          	1               	;
 z2-house21      	0           	.5          	1               	;
 z2-junction1    	-1          	0           	                	;
 z2-junction2    	-1          	0           	                	;
 z2-junction3    	-1          	0           	                	;
 z2-junction4    	-1          	0           	                	;
 z2-junction5    	-1          	0           	                	;
 z3-house01      	0           	.5          	1               	;
 z3-house02      	0           	.5          	1               	;
 z3-house03      	0           	.5          	1               	;
 z3-house04      	0           	.5          	1               	;
 z3-house05      	0           	.5          	1               	;
 z3-house06      	0           	.5          	1               	;
 z3-house07      	0           	.5          	1               	;
 z3-house08      	0           	.5          	1               	;
 z3-house09      	0           	.5          	1               	;
 z3-house10      	0           	.5          	1               	;
 z3-house11      	0           	.5          	1               	;
 z3-house12      	0           	.5          	1               	;
 z3-house13      	0           	.5          	1               	;
 z3-house14      	0           	.5          	1               	;
 z3-house15      	0           	.5          	1               	;
 z3-house16      	0           	.5          	1               	;
 z3-house17      	0           	.5          	1               	;
 z3-house18      	0           	.5          	1               	;
 z3-house19      	0           	.5          	1               	;
 z3-house20      	0           	.5          	1               	;
 z3-house21      	0           	.5          	1               	;
 z3-house22      	0           	.5          	                	;
 z3-house23      	0           	.5          	1               	;
 z3-house24      	0           	.5          	1               	;
 z3-house25      	0           	.5          	1               	;
 z3-house26      	0           	.5          	1               	;
 z3-house27      	0           	.5          	1               	;
 z3-house28      	0           	.5          	1               	;
 z3-house29      	0           	.5          	1               	;
 z3-house30      	0           	.5          	1               	;
 z3-house31      	0           	.5          	1               	;
 z3-house32      	0           	.5          	1               	;
 z3-house33      	0           	.5          	1               	;
 z3-house34      	0           	.5          	1               	;
 z3-house35      	0           	.5          	1               	;
 z3-house36      	0           	.5          	1               	;
 z3-house37      	0           	.5          	1               	;
 z3-house38      	0           	.5          	1               	;
 z3-house39      	0           	.5          	1               	;
 z3-house40      	0           	.5          	1               	;
 z3-house41      	0           	.5          	1               	;
 z3-junction1    	-1          	0           	                	;
 z3-junction2    	-1          	0           	                	;
 z3-junction3    	-1          	0           	                	;
 z3-junction4    	-1          	0           	                	;
 z3-junction5    	-1          	0           	                	;
 z3-junction6    	-1          	0           	                	;
 z3-junction7    	-1          	0           	                	;
 z4-house01      	0           	.5          	1               	;
 z4-house02      	0           	.5          	1               	;
 z4-house03      	0           	.5          	1               	;
 z4-house04      	0           	.5          	1               	;
 z4-house05      	0           	.5          	1               	;
 z4-house06      	0           	.5          	1               	;
 z4-house07      	0           	.5          	1               	;
 z4-house08      	0           	.5          	1               	;
 z4-house09      	0           	.5          	1               	;
 z4-house10      	0           	.5          	1               	;
 z4-house11      	0           	.5          	1               	;
 z4-house12      	0           	.5          	1               	;
 z4-house13      	0           	.5          	1               	;
 z4-house14      	0           	.5          	1               	;
 z4-house15      	0           	.5          	1               	;
 z4-house16      	0           	.5          	1               	;
 z4-house17      	0           	.5          	1               	;
 z4-house18      	0           	.5          	1               	;
 z4-house19      	0           	.5          	1               	;
 z4-house20      	0           	.5          	1               	;
 z4-house21      	0           	.5          	1               	;
 z4-house22      	0           	.5          	1               	;
 z4-house23      	0           	.5          	1               	;
 z4-house24      	0           	.5          	1               	;
 z4-house25      	0           	.5          	1               	;
 z4-house26      	0           	.5          	1               	;
 z4-house27      	0           	.5          	                	;
 z4-house28      	0           	.5          	1               	;
 z4-house29      	0           	.5          	                	;
 z4-house30      	0           	.5          	1               	;
 z4-house31      	0           	.5          	1               	;
 z4-house32      	0           	.5          	1               	;
 z4-house33      	0           	.5          	1               	;
 z4-house34      	0           	.5          	1               	;
 z4-house35      	0           	.5          	1               	;
 z4-junction1    	-1          	0           	                	;
 z4-junction2    	-1          	0           	                	;
 z4-junction3    	-1          	0           	                	;
 z4-junction4    	-1          	0           	                	;
 z4-junction5    	-1          	0           	                	;
 z4-junction6    	-1          	0           	                	;
 z4-junction7    	-1          	0           	                	;
 z4-junction8    	-1          	0           	                	;

[RESERVOIRS]
;ID              	Head        	Pattern         
 z0-reservoir1   	0           	                	;

[TANKS]
;ID              	Elevation   	InitLevel   	MinLevel    	MaxLevel    	Diameter    	MinVol      	VolCurve        	Overflow
 z0-tank0        	0           	10          	5           	15          	50          	0           	                	;
 z0-tank1        	0           	10          	5           	15          	50          	0           	                	;
 z0-tank3        	0           	10          	5           	15          	50          	0           	                	;
 z0-tank2        	0           	10          	5           	15          	50          	0           	                	;

[PIPES]
;ID              	Node1           	Node2           	Length      	Diameter    	Roughness   	MinorLoss   	Status
 02              	z3-junction2    	z3-junction4    	1000        	300         	100         	0           	Open  	;
 03              	z3-junction4    	z3-junction5    	1000        	300         	100         	0           	Open  	;
 04              	z1-junction2    	z1-junction3    	1000        	300         	100         	0           	Open  	;
 05              	z1-junction2    	z1-junction4    	1000        	300         	100         	0           	Open  	;
 06              	z1-junction2    	z1-junction5    	1000        	300         	100         	0           	Open  	;
 07              	z1-junction1    	z1-junction2    	1000        	300         	100         	0           	Open  	;
 08              	z3-junction1    	z3-junction2    	1000        	500         	100         	0           	Open  	;
 12              	z2-junction3    	z2-junction4    	1000        	300         	100         	0           	Open  	;
 13              	z4-junction5    	z4-junction6    	1000        	300         	100         	0           	Open  	;
 14              	z4-junction1    	z4-junction2    	1000        	500         	100         	0           	Open  	;
 15              	z2-junction1    	z2-junction2    	1000        	500         	100         	0           	Open  	;
 16              	32              	z1-junction1    	1000        	500         	100         	0           	Open  	;
 17              	29              	07              	1000        	500         	100         	0           	Open  	;
 18              	07              	z3-junction1    	1000        	500         	100         	0           	Open  	;
 19              	30              	08              	1000        	500         	100         	0           	Open  	;
 20              	31              	09              	1000        	500         	100         	0           	Open  	;
 21              	09              	z2-junction1    	1000        	500         	100         	0           	Open  	;
 22              	08              	z4-junction1    	1000        	500         	100         	0           	Open  	;
 23              	z3-junction2    	z3-junction7    	1000        	300         	100         	0           	Open  	;
 24              	z3-junction2    	z3-junction3    	1000        	300         	100         	0           	Open  	;
 25              	z2-junction2    	z2-junction3    	1000        	300         	100         	0           	Open  	;
 26              	z2-junction3    	z2-junction5    	1000        	300         	100         	0           	Open  	;
 39              	z3-junction2    	z3-junction6    	1000        	300         	100         	0           	Open  	;
 40              	z4-junction2    	z4-junction8    	1000        	300         	100         	0           	Open  	;
 41              	z4-junction2    	z4-junction3    	1000        	300         	100         	0           	Open  	;
 42              	z4-junction2    	z4-junction4    	1000        	300         	100         	0           	Open  	;
 43              	z4-junction4    	z4-junction5    	1000        	300         	100         	0           	Open  	;
 44              	z4-junction4    	z4-junction7    	1000        	300         	100         	0           	Open  	;
 z0-pipe0        	z0-junction1    	01              	1000        	500         	100         	0           	Open  	;
 z0-pipe1        	z0-junction1    	04              	1000        	500         	100         	0           	Open  	;
 z0-pipe2        	z0-junction1    	03              	1000        	500         	100         	0           	Open  	;
 z0-pipe3        	z0-junction1    	34              	1000        	500         	100         	0           	Open  	;
 z0-pipe4        	13              	20              	1000        	500         	100         	0           	Open  	;
 z0-pipe5        	14              	19              	1000        	500         	100         	0           	Open  	;
 z0-pipe6        	15              	18              	1000        	500         	100         	0           	Open  	;
 z0-pipe7        	16              	17              	1000        	500         	100         	0           	Open  	;
 z1-pipe01       	z1-junction3    	z1-house01      	1000        	100         	100         	0           	Open  	;
 z1-pipe02       	z1-junction3    	z1-house02      	1000        	100         	100         	0           	Open  	;
 z1-pipe03       	z1-junction3    	z1-house03      	1000        	100         	100         	0           	Open  	;
 z1-pipe04       	z1-junction3    	z1-house04      	1000        	100         	100         	0           	Open  	;
 z1-pipe05       	z1-junction3    	z1-house05      	1000        	100         	100         	0           	Open  	;
 z1-pipe06       	z1-junction3    	z1-house06      	1000        	100         	100         	0           	Open  	;
 z1-pipe07       	z1-junction3    	z1-house07      	1000        	100         	100         	0           	Open  	;
 z1-pipe08       	z1-junction3    	z1-house08      	1000        	100         	100         	0           	Open  	;
 z1-pipe09       	z1-junction3    	z1-house09      	1000        	100         	100         	0           	Open  	;
 z1-pipe10       	z1-junction4    	z1-house10      	1000        	100         	100         	0           	Open  	;
 z1-pipe11       	z1-junction4    	z1-house11      	1000        	100         	100         	0           	Open  	;
 z1-pipe12       	z1-junction4    	z1-house12      	1000        	100         	100         	0           	Open  	;
 z1-pipe13       	z1-junction4    	z1-house13      	1000        	100         	100         	0           	Open  	;
 z1-pipe14       	z1-junction4    	z1-house14      	1000        	100         	100         	0           	Open  	;
 z1-pipe15       	z1-junction4    	z1-house15      	1000        	100         	100         	0           	Open  	;
 z1-pipe16       	z1-junction4    	z1-house16      	1000        	100         	100         	0           	Open  	;
 z1-pipe17       	z1-junction5    	z1-house17      	1000        	100         	100         	0           	Open  	;
 z1-pipe18       	z1-junction5    	z1-house18      	1000        	100         	100         	0           	Open  	;
 z1-pipe19       	z1-junction5    	z1-house19      	1000        	100         	100         	0           	Open  	;
 z1-pipe20       	z1-junction5    	z1-house20      	1000        	100         	100         	0           	Open  	;
 z1-pipe21       	z1-junction5    	z1-house21      	1000        	100         	100         	0           	Open  	;
 z1-pipe22       	z1-junction5    	z1-house22      	1000        	100         	100         	0           	Open  	;
 z1-pipe23       	z1-junction5    	z1-house23      	1000        	100         	100         	0           	Open  	;
 z1-pipe24       	z1-junction5    	z1-house24      	1000        	100         	100         	0           	Open  	;
 z2-pipe01       	z2-junction2    	z2-house01      	1000        	100         	100         	0           	Open  	;
 z2-pipe02       	z2-junction2    	z2-house02      	1000        	100         	100         	0           	Open  	;
 z2-pipe03       	z2-junction2    	z2-house03      	1000        	100         	100         	0           	Open  	;
 z2-pipe04       	z2-junction2    	z2-house04      	1000        	100         	100         	0           	Open  	;
 z2-pipe05       	z2-junction2    	z2-house05      	1000        	100         	100         	0           	Open  	;
 z2-pipe06       	z2-junction2    	z2-house06      	1000        	100         	100         	0           	Open  	;
 z2-pipe07       	z2-junction3    	z2-house07      	1000        	100         	100         	0           	Open  	;
 z2-pipe08       	z2-junction3    	z2-house08      	1000        	100         	100         	0           	Open  	;
 z2-pipe09       	z2-junction3    	z2-house09      	1000        	100         	100         	0           	Open  	;
 z2-pipe10       	z2-junction4    	z2-house10      	1000        	100         	100         	0           	Open  	;
 z2-pipe11       	z2-junction4    	z2-house11      	1000        	100         	100         	0           	Open  	;
 z2-pipe12       	z2-junction4    	z2-house12      	1000        	100         	100         	0           	Open  	;
 z2-pipe13       	z2-junction4    	z2-house13      	1000        	100         	100         	0           	Open  	;
 z2-pipe14       	z2-junction4    	z2-house14      	1000        	100         	100         	0           	Open  	;
 z2-pipe15       	z2-junction4    	z2-house15      	1000        	100         	100         	0           	Open  	;
 z2-pipe16       	z2-junction4    	z2-house16      	1000        	100         	100         	0           	Open  	;
 z2-pipe17       	z2-junction4    	z2-house17      	1000        	100         	100         	0           	Open  	;
 z2-pipe18       	z2-junction5    	z2-house18      	1000        	100         	100         	0           	Open  	;
 z2-pipe19       	z2-junction5    	z2-house19      	1000        	100         	100         	0           	Open  	;
 z2-pipe20       	z2-junction5    	z2-house20      	1000        	100         	100         	0           	Open  	;
 z2-pipe21       	z2-junction5    	z2-house21      	1000        	100         	100         	0           	Open  	;
 z3-pipe01       	z3-junction3    	z3-house01      	1000        	100         	100         	0           	Open  	;
 z3-pipe02       	z3-junction3    	z3-house02      	1000        	100         	100         	0           	Open  	;
 z3-pipe03       	z3-junction3    	z3-house03      	1000        	100         	100         	0           	Open  	;
 z3-pipe04       	z3-junction3    	z3-house04      	1000        	100         	100         	0           	Open  	;
 z3-pipe05       	z3-junction3    	z3-house05      	1000        	100         	100         	0           	Open  	;
 z3-pipe06       	z3-junction3    	z3-house06      	1000        	100         	100         	0           	Open  	;
 z3-pipe07       	z3-junction3    	z3-house07      	1000        	100         	100         	0           	Open  	;
 z3-pipe08       	z3-junction4    	z3-house08      	1000        	100         	100         	0           	Open  	;
 z3-pipe09       	z3-junction4    	z3-house09      	1000        	100         	100         	0           	Open  	;
 z3-pipe10       	z3-junction4    	z3-house10      	1000        	100         	100         	0           	Open  	;
 z3-pipe11       	z3-junction4    	z3-house11      	1000        	100         	100         	0           	Open  	;
 z3-pipe12       	z3-junction4    	z3-house12      	1000        	100         	100         	0           	Open  	;
 z3-pipe13       	z3-junction4    	z3-house13      	1000        	100         	100         	0           	Open  	;
 z3-pipe14       	z3-junction4    	z3-house14      	1000        	100         	100         	0           	Open  	;
 z3-pipe15       	z3-junction4    	z3-house15      	1000        	100         	100         	0           	Open  	;
 z3-pipe16       	z3-junction4    	z3-house16      	1000        	100         	100         	0           	Open  	;
 z3-pipe17       	z3-junction4    	z3-house17      	1000        	100         	100         	0           	Open  	;
 z3-pipe18       	z3-junction4    	z3-house18      	1000        	100         	100         	0           	Open  	;
 z3-pipe19       	z3-junction5    	z3-house19      	1000        	100         	100         	0           	Open  	;
 z3-pipe20       	z3-junction5    	z3-house20      	1000        	100         	100         	0           	Open  	;
 z3-pipe21       	z3-junction5    	z3-house21      	1000        	100         	100         	0           	Open  	;
 z3-pipe22       	z3-junction5    	z3-house22      	1000        	100         	100         	0           	Open  	;
 z3-pipe23       	z3-junction6    	z3-house23      	1000        	100         	100         	0           	Open  	;
 z3-pipe24       	z3-junction6    	z3-house24      	1000        	100         	100         	0           	Open  	;
 z3-pipe25       	z3-junction6    	z3-house25      	1000        	100         	100         	0           	Open  	;
 z3-pipe26       	z3-junction6    	z3-house26      	1000        	100         	100         	0           	Open  	;
 z3-pipe27       	z3-junction6    	z3-house27      	1000        	100         	100         	0           	Open  	;
 z3-pipe28       	z3-junction6    	z3-house28      	1000        	100         	100         	0           	Open  	;
 z3-pipe29       	z3-junction6    	z3-house29      	1000        	100         	100         	0           	Open  	;
 z3-pipe30       	z3-junction6    	z3-house30      	1000        	100         	100         	0           	Open  	;
 z3-pipe31       	z3-junction7    	z3-house31      	1000        	100         	100         	0           	Open  	;
 z3-pipe32       	z3-junction7    	z3-house32      	1000        	100         	100         	0           	Open  	;
 z3-pipe33       	z3-junction7    	z3-house33      	1000        	100         	100         	0           	Open  	;
 z3-pipe34       	z3-junction7    	z3-house34      	1000        	100         	100         	0           	Open  	;
 z3-pipe35       	z3-junction7    	z3-house35      	1000        	100         	100         	0           	Open  	;
 z3-pipe36       	z3-junction7    	z3-house36      	1000        	100         	100         	0           	Open  	;
 z3-pipe37       	z3-junction7    	z3-house37      	1000        	100         	100         	0           	Open  	;
 z3-pipe38       	z3-junction7    	z3-house38      	1000        	100         	100         	0           	Open  	;
 z3-pipe39       	z3-junction7    	z3-house39      	1000        	100         	100         	0           	Open  	;
 z3-pipe40       	z3-junction7    	z3-house40      	1000        	100         	100         	0           	Open  	;
 z3-pipe41       	z3-junction7    	z3-house41      	1000        	100         	100         	0           	Open  	;
 z4-pipe01       	z4-junction3    	z4-house01      	1000        	100         	100         	0           	Open  	;
 z4-pipe02       	z4-junction3    	z4-house02      	1000        	100         	100         	0           	Open  	;
 z4-pipe03       	z4-junction3    	z4-house03      	1000        	100         	100         	0           	Open  	;
 z4-pipe04       	z4-junction3    	z4-house04      	1000        	100         	100         	0           	Open  	;
 z4-pipe05       	z4-junction3    	z4-house05      	1000        	100         	100         	0           	Open  	;
 z4-pipe06       	z4-junction4    	z4-house06      	1000        	100         	100         	0           	Open  	;
 z4-pipe07       	z4-junction4    	z4-house07      	1000        	100         	100         	0           	Open  	;
 z4-pipe08       	z4-junction4    	z4-house08      	1000        	100         	100         	0           	Open  	;
 z4-pipe09       	z4-junction4    	z4-house09      	1000        	100         	100         	0           	Open  	;
 z4-pipe10       	z4-junction4    	z4-house10      	1000        	100         	100         	0           	Open  	;
 z4-pipe11       	z4-junction4    	z4-house11      	1000        	100         	100         	0           	Open  	;
 z4-pipe12       	z4-junction4    	z4-house12      	1000        	100         	100         	0           	Open  	;
 z4-pipe13       	z4-junction5    	z4-house13      	1000        	100         	100         	0           	Open  	;
 z4-pipe14       	z4-junction5    	z4-house14      	1000        	100         	100         	0           	Open  	;
 z4-pipe15       	z4-junction5    	z4-house15      	1000        	100         	100         	0           	Open  	;
 z4-pipe16       	z4-junction5    	z4-house16      	1000        	100         	100         	0           	Open  	;
 z4-pipe17       	z4-junction5    	z4-house17      	1000        	100         	100         	0           	Open  	;
 z4-pipe18       	z4-junction5    	z4-house18      	1000        	100         	100         	0           	Open  	;
 z4-pipe19       	z4-junction5    	z4-house19      	1000        	100         	100         	0           	Open  	;
 z4-pipe20       	z4-junction5    	z4-house20      	1000        	100         	100         	0           	Open  	;
 z4-pipe21       	z4-junction6    	z4-house21      	1000        	100         	100         	0           	Open  	;
 z4-pipe22       	z4-junction6    	z4-house22      	1000        	100         	100         	0           	Open  	;
 z4-pipe23       	z4-junction6    	z4-house23      	1000        	100         	100         	0           	Open  	;
 z4-pipe24       	z4-junction6    	z4-house24      	1000        	100         	100         	0           	Open  	;
 z4-pipe25       	z4-junction7    	z4-house25      	1000        	100         	100         	0           	Open  	;
 z4-pipe26       	z4-junction7    	z4-house26      	1000        	100         	100         	0           	Open  	;
 z4-pipe27       	z4-junction7    	z4-house27      	1000        	100         	100         	0           	Open  	;
 z4-pipe28       	z4-junction7    	z4-house28      	1000        	100         	100         	0           	Open  	;
 z4-pipe29       	z4-junction7    	z4-house29      	1000        	100         	100         	0           	Open  	;
 z4-pipe30       	z4-junction7    	z4-house30      	1000        	100         	100         	0           	Open  	;
 z4-pipe31       	z4-junction8    	z4-house31      	1000        	100         	100         	0           	Open  	;
 z4-pipe32       	z4-junction8    	z4-house32      	1000        	100         	100         	0           	Open  	;
 z4-pipe33       	z4-junction8    	z4-house33      	1000        	100         	100         	0           	Open  	;
 z4-pipe34       	z4-junction8    	z4-house34      	1000        	100         	100         	0           	Open  	;
 z4-pipe35       	z4-junction8    	z4-house35      	1000        	100         	100         	0           	Open  	;

[PUMPS]
;ID              	Node1           	Node2           	Parameters